kpg193_v2_0_2031/network/m/KPG193_ver2_0_2031.m
function mpc = KPG193_ver2_0_2031
% Generated from KPG193_ver1_6 ACOPF hourly result.
% Bus voltage angle Va is in degrees, matching MATPOWER case format.
mpc.version = '2';

%-----  Power Flow Data  -----%%
% system MVA base
mpc.baseMVA = 100;

% bus data
%	bus_i	type	Pd	Qd	Gs	Bs	area	Vm	Va	baseKV	zone	Vmax	Vmin
mpc.bus = [
	1	1	68.5498590454	6.85498590454	0	0	1	1.01427196225	-11.1164029353	154	1	1.1	0.9	;
	2	1	82.851336774	8.2851336774	0	0	1	1.01837100337	-13.1939792459	345	1	1.05	0.95	;
	3	1	379.988431902	37.9988431902	0	0	1	1.01839833669	-13.1557043737	345	1	1.05	0.95	;
	4	1	88.1332457191	8.81332457191	0	0	1	1.0199241627	-13.660873752	345	1	1.05	0.95	;
	5	1	83.7871734143	9.95216125018	0	0	1	1.02323967619	-2.53161783797	154	1	1.1	0.9	;
	6	1	84.6770761738	8.46770761738	0	0	1	1.02087098195	-14.7939095702	154	1	1.1	0.9	;
	7	1	571.349630178	57.1359109561	0	0	1	1.02110269107	-13.8324758547	345	1	1.05	0.95	;
	8	1	1304.22251844	130.422251844	0	0	1	1.02124704331	-14.5810266489	345	1	1.05	0.95	;
	9	1	330.189072918	33.0189072918	0	0	1	1.02305759089	-14.3028264697	154	1	1.1	0.9	;
	10	2	725.412364516	72.5412364516	0	0	1	1.02286295327	-14.4816902877	154	1	1.1	0.9	;
	11	1	600.845568234	60.0845568234	0	0	1	1.02141890724	-14.8240490586	345	1	1.05	0.95	;
	12	1	329.691170821	32.9691170821	0	0	1	1.0229807878	-14.3231198969	154	1	1.1	0.9	;
	13	1	355.349287724	35.5349287724	0	0	1	1.02320021909	-14.3029747645	154	1	1.1	0.9	;
	14	1	381.085838226	38.1085838226	0	0	1	1.02325459534	-14.3553021504	345	1	1.05	0.95	;
	15	1	112.732619709	11.2732619709	0	0	1	1.02369125571	-14.2168911446	154	1	1.1	0.9	;
	16	1	485.65656757	48.565656757	0	0	1	1.02397577611	-14.1817295617	345	1	1.05	0.95	;
	17	1	523.687418752	52.3687418752	0	0	1	1.02377955538	-14.2735702086	345	1	1.05	0.95	;
	18	1	546.751397851	54.6751397851	0	0	1	1.02366750669	-14.3116390721	345	1	1.05	0.95	;
	19	2	514.584396537	51.4730272194	0	0	1	1.02328756081	-14.3645704977	345	1	1.05	0.95	;
	20	2	263.171660568	26.581648555	0	0	1	1.02177746227	-13.6980373728	154	1	1.1	0.9	;
	21	2	794.014421342	80.235188864	0	0	1	1.02278568337	-14.6068154487	345	1	1.05	0.95	;
	22	1	647.918271311	64.7918271311	0	0	1	1.0236262658	-14.1708953388	345	1	1.05	0.95	;
	23	1	379.156209355	37.9156209355	0	0	1	1.02293783096	-14.3983233319	345	1	1.05	0.95	;
	24	1	620.307209434	62.0307209434	0	0	1	1.02329966739	-14.4615370874	154	1	1.1	0.9	;
	25	1	501.625589367	50.1625589367	0	0	1	1.0229780693	-14.5604410796	154	1	1.1	0.9	;
	26	1	592.062628381	59.2062628381	0	0	1	1.02398447524	-14.4278191875	345	1	1.05	0.95	;
	27	2	-181.804431279	3.3724898228	0	0	1	1.02559061873	-14.1627779436	345	1	1.05	0.95	;
	28	1	134.22733654	13.422733654	0	0	1	1.0156374118	-9.71318848388	765	1	1.05	0.95	;
	29	1	652.773302782	65.2775399229	0	0	1	1.02263178052	-14.1975816521	345	1	1.05	0.95	;
	30	1	507.194153565	50.7194153565	0	0	1	1.02258111427	-14.2007024307	154	1	1.1	0.9	;
	31	1	412.487942392	41.2494842398	0	0	1	1.02218852182	-14.448499167	154	1	1.1	0.9	;
	32	1	170.07281957	17.007281957	0	0	1	1.02286398769	-14.4103489761	345	1	1.05	0.95	;
	33	1	490.4357046	49.04357046	0	0	1	1.02267216776	-14.4217038223	154	1	1.1	0.9	;
	34	2	1096.80340812	109.680822222	0	0	1	1.0246466138	-14.3546039117	345	1	1.05	0.95	;
	35	1	668.184908342	66.8184908342	0	0	1	1.02124902688	-14.4046766678	154	1	1.1	0.9	;
	36	2	770.827632087	77.0827632087	0	0	1	1.02271052046	-14.1567719694	345	1	1.05	0.95	;
	37	1	945.019580648	94.5019580648	0	0	1	1.0231988527	-14.2673804742	345	1	1.05	0.95	;
	38	1	382.743716442	38.2743716442	0	0	1	1.01940431789	-13.5174947509	345	1	1.05	0.95	;
	39	1	738.420388814	73.8420388814	0	0	1	1.01489839628	-15.6778324677	154	1	1.1	0.9	;
	40	2	1107.38957992	111.931955065	0	0	1	1.02310294307	-13.2273043083	345	1	1.05	0.95	;
	41	1	202.247492095	20.2247492095	0	0	1	1.00122820303	-8.42789511602	154	1	1.1	0.9	;
	42	1	1234.31877594	123.431877594	0	0	1	0.999196442876	-14.1394533637	154	1	1.1	0.9	;
	43	2	643.31504328	64.3339387139	0	0	1	1.01812638779	-15.086288498	154	1	1.1	0.9	;
	44	1	198.476905691	19.8488360783	0	0	1	1.02114263442	-13.9545753548	345	1	1.05	0.95	;
	45	1	363.422414571	36.3422414571	0	0	1	1.02021263692	-13.5346824676	345	1	1.05	0.95	;
	46	1	1143.27492797	114.327492797	0	0	1	1.02027924526	-13.6256671294	345	1	1.05	0.95	;
	47	1	2895.73437808	289.573949004	0	0	1	1.01832097297	-14.3931824791	345	1	1.05	0.95	;
	48	2	201.990719823	20.1990719823	0	0	1	1.02088548428	-13.227528821	154	1	1.1	0.9	;
	49	1	413.258813693	41.3258813693	0	0	1	1.01880366027	-12.8352956218	154	1	1.1	0.9	;
	50	1	491.437190248	49.1437190248	0	0	1	1.02125092688	-12.0993450378	765	1	1.05	0.95	;
	51	1	1968.82102648	196.882102648	0	0	1	1.01914169274	-12.7711269274	345	1	1.05	0.95	;
	52	2	453.083529097	45.3083529097	0	0	2	1.00911419033	-9.26471996831	154	1	1.1	0.9	;
	53	2	940.328174144	94.0328174144	0	0	2	1.03186997421	-6.57561131581	765	1	1.05	0.95	;
	54	1	404.020103057	40.4020103057	0	0	2	1.02063952218	-11.0276635912	345	1	1.05	0.95	;
	55	1	1176.02921257	117.603220793	0	0	2	1.0237583448	-9.86400928423	345	1	1.05	0.95	;
	56	1	163.392682302	16.3392682302	0	0	2	1.01343216826	-10.6443697526	154	1	1.1	0.9	;
	57	1	1851.72771081	185.172999258	0	0	2	1.02292073408	-10.1499588409	345	1	1.05	0.95	;
	58	1	1386.14758719	138.615397593	0	0	2	1.03333364727	-5.69730877101	345	1	1.05	0.95	;
	59	2	125.833137775	12.5867037945	0	0	2	1.03656914702	-4.27078048553	345	1	1.05	0.95	;
	60	1	183.301018714	18.3301018714	0	0	2	1.02786453679	-8.38510687922	345	1	1.05	0.95	;
	61	1	877.543306192	87.7543738039	0	0	2	1.02166481559	-10.8059153562	154	1	1.1	0.9	;
	62	1	1032.86902116	103.287104093	0	0	2	1.02350403593	-10.6855480221	765	1	1.05	0.95	;
	63	1	143.098523415	14.3098523415	0	0	2	1.0305182916	-7.45335851203	765	1	1.05	0.95	;
	64	1	521.40679399	52.140679399	0	0	2	1.02280084818	-9.95792280817	345	1	1.05	0.95	;
	65	1	82.0833285588	12.3999019662	0	0	3	1.01021304029	3.8261585459	154	1	1.1	0.9	;
	66	1	30.2434153479	3.58200271586	0	0	3	1.01247317789	-4.70275438559	154	1	1.1	0.9	;
	67	1	25.7123264718	2.83801243471	0	0	3	1.00913995793	-1.81094780386	154	1	1.1	0.9	;
	68	1	13.7524492951	4.48075731931	0	0	3	1.01374284594	5.68017812569	345	1	1.05	0.95	;
	69	1	24.5986718959	4.66244583767	0	0	3	1.00855701261	0.320221279022	154	1	1.1	0.9	;
	70	1	256.697772364	25.7156029022	0	0	3	1.01198572191	-4.40868358578	154	1	1.1	0.9	;
	71	2	290.013878119	29.0013878119	0	0	3	1.01644625535	7.79201498827	345	1	1.05	0.95	;
	72	1	101.252611787	10.1252611787	0	0	3	1.00741022891	-3.756673984	154	1	1.1	0.9	;
	73	2	319.795650619	32.8814898549	0	0	3	1.01278380356	9.57378043552	345	1	1.05	0.95	;
	74	1	-46.5004592525	9.3510116134	0	0	3	1.00541277734	-4.12523819299	154	1	1.1	0.9	;
	75	2	192.22407135	19.4062580768	0	0	3	1.01564328259	11.54326366	345	1	1.05	0.95	;
	76	1	48.5037487605	8.63898505308	0	0	3	0.999257494958	3.74050082188	154	1	1.1	0.9	;
	77	1	356.266068036	35.6266068036	0	0	3	1.00041214193	-6.11717359327	154	1	1.1	0.9	;
	78	1	-568.609311974	8.62257523888	0	0	3	1.02024381445	0.26876325521	154	1	1.1	0.9	;
	79	1	157.175325405	15.7175325405	0	0	3	0.996692652028	0.521822292184	154	1	1.1	0.9	;
	80	1	-2560.96176677	4.17060150104	0	0	3	1.00533890186	8.173819339	765	1	1.05	0.95	;
	81	1	227.63711459	22.7644557188	0	0	3	0.999165470441	-1.50835022198	345	1	1.05	0.95	;
	82	2	2.03705617406	9.89812839524	0	0	3	1.01202833001	11.948530848	765	1	1.05	0.95	;
	83	1	260.292764974	26.0298021459	0	0	3	0.991554886675	-1.9008703409	154	1	1.1	0.9	;
	84	1	367.622345122	37.9698234963	0	0	3	1.00557178199	-8.69672251711	345	1	1.05	0.95	;
	85	1	245.155614538	24.5155614538	0	0	3	0.996587012287	3.30012415141	154	1	1.1	0.9	;
	86	1	240.071678245	24.0073441955	0	0	3	0.999699120482	2.69809261707	345	1	1.05	0.95	;
	87	2	30.5643623106	5.49218182511	0	0	3	1.00083707525	2.14594209969	345	1	1.05	0.95	;
	88	1	-1201.86747976	1.54431551346	0	0	3	1.00455736352	12.2458244249	154	1	1.1	0.9	;
	89	1	83.2994571421	8.33046726482	0	0	3	0.998502929531	-1.90914469419	154	1	1.1	0.9	;
	90	1	161.544206979	16.6834980242	0	0	3	0.998414388284	2.27493133007	154	1	1.1	0.9	;
	91	1	55.8484119863	5.58484119862	0	0	3	1.0183124682	-8.8695585951	154	1	1.1	0.9	;
	92	1	-109.943230163	2.83446336968	0	0	3	0.998798543421	3.17516423134	345	1	1.05	0.95	;
	93	1	110.500437762	11.0509916278	0	0	3	1.00520906498	-6.13036831804	154	1	1.1	0.9	;
	94	1	-468.49007356	4.08490744434	0	0	3	0.99880696535	7.47172334331	154	1	1.1	0.9	;
	95	1	62.7715974918	6.27715974918	0	0	3	0.998040199099	1.08658531949	345	1	1.05	0.95	;
	96	2	162.400641151	16.2400641151	0	0	4	1.0294087642	-7.27159968684	154	1	1.1	0.9	;
	97	1	50.5318978124	5.05318978124	0	0	4	1.0318281957	-6.48856878403	345	1	1.05	0.95	;
	98	1	257.892058469	26.0522475842	0	0	4	1.02096976443	-10.160489024	154	1	1.1	0.9	;
	99	1	835.869745777	83.5869745777	0	0	4	1.02148509335	-10.3442138248	154	1	1.1	0.9	;
	100	2	195.8841882	19.58841882	0	0	4	1.03580311236	-4.56134439703	345	1	1.05	0.95	;
	101	1	305.495180169	30.5495180169	0	0	4	1.02519686251	-9.63647052149	154	1	1.1	0.9	;
	102	1	89.936702008	8.9936702008	0	0	4	1.02379724707	-8.67497961375	345	1	1.05	0.95	;
	103	1	94.2839746381	9.42839746381	0	0	4	1.03111562676	-6.58592456044	154	1	1.1	0.9	;
	104	1	199.17736638	19.917736638	0	0	4	1.02811685407	-7.83421596441	345	1	1.05	0.95	;
	105	1	133.522245782	13.3522245782	0	0	4	1.01999106605	-8.86971804834	154	1	1.1	0.9	;
	106	2	158.021124417	15.8021124417	0	0	4	1.03174040216	-6.24976204985	154	1	1.1	0.9	;
	107	1	3.39329622291	3.00042089709	0	0	4	1.02001151163	-8.04875394497	345	1	1.05	0.95	;
	108	1	820.175499826	82.0175499826	0	0	4	1.03032236449	-7.09382617735	345	1	1.05	0.95	;
	109	1	429.499659931	42.9499659931	0	0	4	1.02913169923	-7.32000009103	345	1	1.05	0.95	;
	110	1	251.347589348	25.1347589348	0	0	4	1.02190697105	-8.89354847378	154	1	1.1	0.9	;
	111	1	159.168852204	15.9168852204	0	0	4	1.02913921547	-6.5888286477	345	1	1.05	0.95	;
	112	1	29.4262500023	2.94262500023	0	0	4	1.02241572486	-8.48757745945	154	1	1.1	0.9	;
	113	1	625.498952943	62.5498952943	0	0	4	1.02144171965	-8.93032991291	154	1	1.1	0.9	;
	114	1	68.9277363237	6.91892810321	0	0	4	1.02863099277	-7.04605535231	154	1	1.1	0.9	;
	115	1	30.1707420224	3.01707420224	0	0	4	1.02535117156	-7.86110397845	154	1	1.1	0.9	;
	116	1	42.5911414993	4.25911414993	0	0	4	1.02431780428	-8.05872376841	154	1	1.1	0.9	;
	117	1	245.409285048	25.7171302545	0	0	4	1.0294671827	-7.07508035272	154	1	1.1	0.9	;
	118	1	93.4001762817	9.34001762817	0	0	4	1.03261647809	-3.16092452768	154	1	1.1	0.9	;
	119	1	94.0934614175	9.40934614175	0	0	4	1.02657410134	-6.96665668563	345	1	1.05	0.95	;
	120	1	38.5805504437	3.85805504437	0	0	4	1.02934781241	-7.63415678523	154	1	1.1	0.9	;
	121	1	89.7838929918	8.97838929918	0	0	4	1.0294239276	-7.51729696825	154	1	1.1	0.9	;
	122	1	74.3499609991	7.43499609991	0	0	4	1.02784863587	-7.29427868825	154	1	1.1	0.9	;
	123	1	60.4710507432	6.04710507432	0	0	4	1.02743578636	-7.65399817381	154	1	1.1	0.9	;
	124	2	117.518028475	11.7518028475	0	0	4	1.03579428131	-1.1826566706	345	1	1.05	0.95	;
	125	1	25.0285821244	2.50285821244	0	0	4	1.02704993073	-7.82742611128	154	1	1.1	0.9	;
	126	1	416.961720733	41.6961720733	0	0	4	1.02813146131	-6.95957640656	345	1	1.05	0.95	;
	127	1	328.563438806	32.8563438806	0	0	4	1.02639480504	-7.70776488484	154	1	1.1	0.9	;
	128	1	496.426983841	49.6426983841	0	0	4	1.02052927775	-9.97004795698	154	1	1.1	0.9	;
	129	1	58.7576861051	5.87576861051	0	0	4	1.02896232176	-9.33801052074	154	1	1.1	0.9	;
	130	1	48.6047586141	7.43301865827	0	0	4	1.02793913944	-7.71024931046	345	1	1.05	0.95	;
	131	1	190.483042476	19.0483042476	0	0	4	1.02479340373	-9.07802871478	154	1	1.1	0.9	;
	132	1	102.252105237	10.2252105237	0	0	4	1.02964883427	-9.14215575502	154	1	1.1	0.9	;
	133	1	287.065236192	30.6045986208	0	0	4	1.02282512956	-8.58454019948	345	1	1.05	0.95	;
	134	1	697.267024471	69.7267024471	0	0	4	1.0224456635	-8.23088704551	345	1	1.05	0.95	;
	135	1	147.582867454	14.7977639304	0	0	4	1.02901462069	-9.42047078302	154	1	1.1	0.9	;
	136	1	170.167190759	17.0167190759	0	0	4	1.02865558688	-8.58408834742	345	1	1.05	0.95	;
	137	2	2010.20397689	202.513509645	0	0	4	1.01977798033	-8.87949309584	345	1	1.05	0.95	;
	138	1	43.7618164636	4.37618164636	0	0	4	1.02659924128	-8.86073094112	154	1	1.1	0.9	;
	139	1	46.4287064114	4.64287064114	0	0	4	1.03100810659	-9.15256410026	154	1	1.1	0.9	;
	140	1	34.5423277996	5.36899754091	0	0	4	1.02895109867	-8.96386487326	154	1	1.1	0.9	;
	141	1	55.8076088062	5.58076088062	0	0	4	1.03012455419	-8.88872227588	154	1	1.1	0.9	;
	142	1	75.8306811041	7.58306811041	0	0	4	1.02520061338	-9.00661164941	154	1	1.1	0.9	;
	143	1	108.978595341	10.9029196173	0	0	4	1.03059868251	-8.91236674444	154	1	1.1	0.9	;
	144	1	49.9776144116	5.01544868429	0	0	4	1.02961556383	-9.49476972684	154	1	1.1	0.9	;
	145	1	83.3509257243	15.57948793	0	0	4	1.02872414293	-9.40280640121	154	1	1.1	0.9	;
	146	1	14.1211596187	4.55663795295	0	0	5	0.992516760427	-1.95149489661	154	1	1.1	0.9	;
	147	1	61.767529364	6.1767529364	0	0	5	1.01841355336	-8.27227998832	154	1	1.1	0.9	;
	148	1	334.416518487	33.4416518487	0	0	5	0.983817718354	-8.06740565055	154	1	1.1	0.9	;
	149	1	1322.98666875	132.298666875	0	0	5	0.989612651175	-6.45322323679	345	1	1.05	0.95	;
	150	1	652.451870842	73.5710629702	0	0	5	0.993611049264	-0.0192033343373	345	1	1.05	0.95	;
	151	1	527.361580645	62.1791471225	0	0	5	0.994559976293	-0.10196569868	345	1	1.05	0.95	;
	152	1	278.668454286	27.8668454286	0	0	5	0.994570281463	-5.16484045248	345	1	1.05	0.95	;
	153	1	218.367109355	21.8367109355	0	0	5	0.988701606917	-3.49598975675	154	1	1.1	0.9	;
	154	1	149.464389634	14.9465147641	0	0	5	0.989864608214	-6.41884035159	154	1	1.1	0.9	;
	155	1	418.805692713	41.8819851807	0	0	5	0.991811919089	-6.48344942854	154	1	1.1	0.9	;
	156	1	451.205476036	45.1205476036	0	0	5	0.992048039052	-5.10171786362	154	1	1.1	0.9	;
	157	1	212.41183726	21.241183726	0	0	5	0.992955398643	-6.59689712584	154	1	1.1	0.9	;
	158	1	-163.346112416	55.5698214491	0	0	5	0.993645076276	-0.230085134921	154	1	1.1	0.9	;
	159	1	386.492886762	38.6492886762	0	0	5	0.992665277385	-4.03137128319	345	1	1.05	0.95	;
	160	1	1103.03974586	110.303974586	0	0	5	1.00053175507	-6.95378809919	154	1	1.1	0.9	;
	161	1	181.884270321	18.1884270321	0	0	5	1.00326164096	-4.88375852781	345	1	1.05	0.95	;
	162	1	65.6295171561	6.56295171561	0	0	5	1.00273523304	-6.2809786286	154	1	1.1	0.9	;
	163	1	69.0293148577	6.90293148577	0	0	5	0.996538861922	-2.78650837276	345	1	1.05	0.95	;
	164	1	55.4456347928	5.80527429178	0	0	5	1.00242872882	-5.73516110871	154	1	1.1	0.9	;
	165	1	1692.70445359	169.270856308	0	0	5	0.990859834863	-1.51719386046	345	1	1.05	0.95	;
	166	2	538.034632379	54.3700013561	0	0	5	0.99727404047	1.26027072473	345	1	1.05	0.95	;
	167	2	2259.13513355	225.914037506	0	0	5	0.996195746649	0.823549121013	345	1	1.05	0.95	;
	168	1	143.868323737	14.3868323737	0	0	5	1.00191576027	-1.22565112781	765	1	1.05	0.95	;
	169	1	40.544563188	4.0544563188	0	0	5	1.00449585797	-6.15783252378	154	1	1.1	0.9	;
	170	1	160.036204506	17.8160555874	0	0	5	0.994935626616	-2.37547063369	154	1	1.1	0.9	;
	171	1	27.7449096208	4.98737344012	0	0	5	1.00891660867	-5.10311304273	345	1	1.05	0.95	;
	172	1	443.986942466	52.598767036	0	0	5	0.991857706443	-0.702647628443	154	1	1.1	0.9	;
	173	1	42.3940983256	5.45813736346	0	0	5	1.00821248336	-5.0197244611	345	1	1.05	0.95	;
	174	1	395.790182796	39.5790182796	0	0	5	1.00271353203	-4.45235710606	345	1	1.05	0.95	;
	175	2	178.052981964	17.9450984114	0	0	5	1.00321598272	3.74655728173	765	1	1.05	0.95	;
	176	1	520.010705436	52.0010705436	0	0	5	0.99761042085	-3.31366821769	345	1	1.05	0.95	;
	177	1	664.88188899	66.4887376838	0	0	5	0.993193405241	-2.83015832381	345	1	1.05	0.95	;
	178	1	751.557955334	75.156041472	0	0	5	0.986698435413	-4.13018039524	154	1	1.1	0.9	;
	179	1	401.148828283	40.1148828283	0	0	5	0.998190429241	1.87141213545	345	1	1.05	0.95	;
	180	1	375.192767002	37.5192767002	0	0	5	1.00271816204	-5.03492131691	154	1	1.1	0.9	;
	181	1	340.136415998	34.0136415998	0	0	5	0.996981972078	1.05483374577	345	1	1.05	0.95	;
	182	1	614.049069582	61.4059453061	0	0	5	0.98793464064	-4.11275656098	345	1	1.05	0.95	;
	183	1	277.779028762	27.778251616	0	0	5	0.993334326829	-2.73659088072	345	1	1.05	0.95	;
	184	1	548.839076416	54.8847559774	0	0	5	0.997841223125	1.82662921389	345	1	1.05	0.95	;
	185	1	313.657955956	31.3657955956	0	0	5	0.996058671216	1.06246165447	154	1	1.1	0.9	;
	186	2	469.666924125	46.9689759327	0	0	5	0.996654317572	0.955574967622	345	1	1.05	0.95	;
	187	1	64.9145391904	6.49145391904	0	0	5	0.996626396134	0.946626515958	345	1	1.05	0.95	;
	188	1	59.2535578742	5.92865041733	0	0	5	1.0187995576	-6.87648239733	154	1	1.1	0.9	;
	189	1	106.977790362	10.8221691647	0	0	5	0.99771542722	-0.091061200035	154	1	1.1	0.9	;
	190	3	192.180576244	19.4191040689	0	0	5	1	0	345	1	1.05	0.95	;
	191	1	270.262713574	27.0273107751	0	0	5	0.995693288724	-0.18472086175	154	1	1.1	0.9	;
	192	2	134.997984467	13.5003113457	0	0	5	0.99841804584	0.795987530974	154	1	1.1	0.9	;
	193	2	38.5083147958	3.85083147958	0	0	5	1.02196787247	-5.9737213026	345	1	1.05	0.95	;
];

% generator data
%	bus	Pg	Qg	Qmax	Qmin	Vg	mBase	status	Pmax	Pmin	Pc1	Pc2	Qc1min	Qc1max	Qc2min	Qc2max	ramp_agc	ramp_10	ramp_30	ramp_q	apf
mpc.gen = [
	3	0	0	362.5	-362.5	1.01839833669	100	0	725	377	0	0	0	0	0	0	0	120.8333333	362.5	362.5	0	;
	3	0	0	362.5	-362.5	1.01839833669	100	0	725	377	0	0	0	0	0	0	0	120.8333333	362.5	362.5	0	;
	3	0	0	437.1	-437.1	1.01839833669	100	0	874.2	454.584	0	0	0	0	0	0	0	145.7	437.1	437.1	0	;
	4	0	0	262.15	-262.15	1.0199241627	100	0	524.3	272.636	0	0	0	0	0	0	0	87.38333333	262.15	262.15	0	;
	4	0	0	429.2	-429.2	1.0199241627	100	0	858.4	446.368	0	0	0	0	0	0	0	143.0666667	429.2	429.2	0	;
	4	0	0	429.2	-429.2	1.0199241627	100	0	858.4	446.368	0	0	0	0	0	0	0	143.0666667	429.2	429.2	0	;
	8	0	0	423.8	-423.8	1.02124704331	100	0	847.6	440.752	0	0	0	0	0	0	0	141.2666667	423.8	423.8	0	;
	8	0	0	423.8	-423.8	1.02124704331	100	0	847.6	440.752	0	0	0	0	0	0	0	141.2666667	423.8	423.8	0	;
	8	0	0	257.75	-257.75	1.02124704331	100	0	515.5	268.06	0	0	0	0	0	0	0	85.91666667	257.75	257.75	0	;
	9	0	0	57.705	-57.705	1.02305759089	100	0	115.41	60.0132	0	0	0	0	0	0	0	19.235	57.705	57.705	0	;
	9	0	0	18.5	-18.5	1.02305759089	100	0	37	19.24	0	0	0	0	0	0	0	6.166666667	18.5	18.5	0	;
	10	0	0	300	-300	1.02286295327	100	0	600	312	0	0	0	0	0	0	0	100	300	300	0	;
	10	288.234853767	43.7860946746	150	-150	1.02286295327	100	1	300	156	0	0	0	0	0	0	0	50	150	150	0	;
	19	355.583129956	36.0084171003	184.5865	-184.5865	1.02328756081	100	1	369.173	191.96996	0	0	0	0	0	0	0	61.52883333	184.5865	184.5865	0	;
	19	353.658569983	36.0084171003	184.5865	-184.5865	1.02328756081	100	1	369.173	191.96996	0	0	0	0	0	0	0	61.52883333	184.5865	184.5865	0	;
	20	348.259568365	42.4417854103	181.9055	-181.9055	1.02177746227	100	1	363.811	189.18172	0	0	0	0	0	0	0	60.63516667	181.9055	181.9055	0	;
	21	441.712889242	34.8005140099	225	-225	1.02278568337	100	1	450	234	0	0	0	0	0	0	0	75	225	225	0	;
	21	0	0	225	-225	1.02278568337	100	0	450	234	0	0	0	0	0	0	0	75	225	225	0	;
	21	0	0	225	-225	1.02278568337	100	0	450	234	0	0	0	0	0	0	0	75	225	225	0	;
	21	0	0	225	-225	1.02278568337	100	0	450	234	0	0	0	0	0	0	0	75	225	225	0	;
	24	0	0	10.5	-10.5	1.02329966739	100	0	21	10.92	0	0	0	0	0	0	0	3.5	10.5	10.5	0	;
	26	0	0	0	0	1.02398447524	100	0	0	0	0	0	0	0	0	0	0	0	0	0	0	;
	27	0	0	63.5	-63.5	1.02559061873	100	0	127	66.04	0	0	0	0	0	0	0	21.16666667	63.5	63.5	0	;
	27	176.20858702	49.7029829153	93.65	-93.65	1.02559061873	100	1	187.3	97.396	0	0	0	0	0	0	0	31.21666667	93.65	93.65	0	;
	34	216.932401859	49.2901630686	112.5	-112.5	1.0246466138	100	1	225	117	0	0	0	0	0	0	0	37.5	112.5	112.5	0	;
	34	213.260379827	49.2901630686	112.5	-112.5	1.0246466138	100	1	225	117	0	0	0	0	0	0	0	37.5	112.5	112.5	0	;
	34	211.12951049	49.2901630686	112.5	-112.5	1.0246466138	100	1	225	117	0	0	0	0	0	0	0	37.5	112.5	112.5	0	;
	34	216.932401859	49.2901630686	112.5	-112.5	1.0246466138	100	1	225	117	0	0	0	0	0	0	0	37.5	112.5	112.5	0	;
	34	210.886992218	49.2901630686	112.5	-112.5	1.0246466138	100	1	225	117	0	0	0	0	0	0	0	37.5	112.5	112.5	0	;
	34	213.968439051	49.2901630686	112.5	-112.5	1.0246466138	100	1	225	117	0	0	0	0	0	0	0	37.5	112.5	112.5	0	;
	34	0	0	112.5	-112.5	1.0246466138	100	0	225	117	0	0	0	0	0	0	0	37.5	112.5	112.5	0	;
	34	210.886992218	49.2901630686	112.5	-112.5	1.0246466138	100	1	225	117	0	0	0	0	0	0	0	37.5	112.5	112.5	0	;
	34	0	0	251.7695	-251.7695	1.0246466138	100	0	503.539	261.84028	0	0	0	0	0	0	0	83.92316667	251.7695	251.7695	0	;
	34	0	0	254.454	-254.454	1.0246466138	100	0	508.908	264.63216	0	0	0	0	0	0	0	84.818	254.454	254.454	0	;
	34	0	0	225	-225	1.0246466138	100	0	450	234	0	0	0	0	0	0	0	75	225	225	0	;
	34	437.136771255	34.9826502134	225	-225	1.0246466138	100	1	450	234	0	0	0	0	0	0	0	75	225	225	0	;
	34	0	0	225	-225	1.0246466138	100	0	450	234	0	0	0	0	0	0	0	75	225	225	0	;
	34	0	0	287.3	-287.3	1.0246466138	100	0	574.6	298.792	0	0	0	0	0	0	0	95.76666667	287.3	287.3	0	;
	34	556.273436004	28.894183378	287.3	-287.3	1.0246466138	100	1	574.6	298.792	0	0	0	0	0	0	0	95.76666667	287.3	287.3	0	;
	34	0	0	187.8	-187.8	1.0246466138	100	0	375.6	195.312	0	0	0	0	0	0	0	62.6	187.8	187.8	0	;
	34	0	0	187.8	-187.8	1.0246466138	100	0	375.6	195.312	0	0	0	0	0	0	0	62.6	187.8	187.8	0	;
	34	0	0	187.8	-187.8	1.0246466138	100	0	375.6	195.312	0	0	0	0	0	0	0	62.6	187.8	187.8	0	;
	36	0	0	0	0	1.02271052046	100	0	0	0	0	0	0	0	0	0	0	0	0	0	0	;
	36	330.095591485	44.7351426298	174.137	-174.137	1.02271052046	100	1	348.274	181.10248	0	0	0	0	0	0	0	58.04566667	174.137	174.137	0	;
	36	0	0	206.3	-206.3	1.02271052046	100	0	412.6	214.552	0	0	0	0	0	0	0	68.76666667	206.3	206.3	0	;
	36	0	0	73.157	-73.157	1.02271052046	100	0	146.314	76.08328	0	0	0	0	0	0	0	24.38566667	73.157	73.157	0	;
	37	0	0	12	-12	1.0231988527	100	0	24	12.48	0	0	0	0	0	0	0	4	12	12	0	;
	39	0	0	240.845	-240.845	1.01489839628	100	0	481.69	250.4788	0	0	0	0	0	0	0	80.28166667	240.845	240.845	0	;
	39	0	0	240.845	-240.845	1.01489839628	100	0	481.69	250.4788	0	0	0	0	0	0	0	80.28166667	240.845	240.845	0	;
	40	0	0	30	-30	1.02310294307	100	0	60	31.2	0	0	0	0	0	0	0	10	30	30	0	;
	40	0	0	375.6	-375.6	1.02310294307	100	0	751.2	390.624	0	0	0	0	0	0	0	125.2	375.6	375.6	0	;
	40	791.177506699	23.0384722986	400	-400	1.02310294307	100	1	800	320	0	0	0	0	0	0	0	88	264	400	0	;
	40	791.177506699	23.0384722986	400	-400	1.02310294307	100	1	800	320	0	0	0	0	0	0	0	88	264	400	0	;
	40	861.385422053	21.5652677451	435	-435	1.02310294307	100	1	870	348	0	0	0	0	0	0	0	95.7	287.1	435	0	;
	40	861.385422053	21.5652677451	435	-435	1.02310294307	100	1	870	348	0	0	0	0	0	0	0	95.7	287.1	435	0	;
	40	861.385422053	21.5652677451	435	-435	1.02310294307	100	1	870	348	0	0	0	0	0	0	0	95.7	287.1	435	0	;
	40	861.385422053	21.5652677451	435	-435	1.02310294307	100	1	870	348	0	0	0	0	0	0	0	95.7	287.1	435	0	;
	43	133.028519832	48.3794230423	72.394	-72.394	1.01812638779	100	1	144.788	75.28976	0	0	0	0	0	0	0	24.13133333	72.394	72.394	0	;
	43	0	0	0	0	1.01812638779	100	0	0	0	0	0	0	0	0	0	0	0	0	0	0	;
	45	0	0	255.9	-255.9	1.02021263692	100	0	511.8	266.136	0	0	0	0	0	0	0	85.3	255.9	255.9	0	;
	47	0	0	0	0	1.01832097297	100	0	0	0	0	0	0	0	0	0	0	0	0	0	0	;
	47	0	0	0	0	1.01832097297	100	0	0	0	0	0	0	0	0	0	0	0	0	0	0	;
	47	0	0	0	0	1.01832097297	100	0	0	0	0	0	0	0	0	0	0	0	0	0	0	;
	47	0	0	0	0	1.01832097297	100	0	0	0	0	0	0	0	0	0	0	0	0	0	0	;
	47	0	0	434.25	-434.25	1.01832097297	100	0	868.5	451.62	0	0	0	0	0	0	0	144.75	434.25	434.25	0	;
	47	0	0	431.65	-431.65	1.01832097297	100	0	863.3	448.916	0	0	0	0	0	0	0	143.8833333	431.65	431.65	0	;
	48	0	0	218.05	-218.05	1.02088548428	100	0	436.1	226.772	0	0	0	0	0	0	0	72.68333333	218.05	218.05	0	;
	48	0	0	189.19	-189.19	1.02088548428	100	0	378.38	196.7576	0	0	0	0	0	0	0	63.06333333	189.19	189.19	0	;
	48	368.827957808	40.0181959412	189.19	-189.19	1.02088548428	100	1	378.38	196.7576	0	0	0	0	0	0	0	63.06333333	189.19	189.19	0	;
	49	0	0	384.915	-384.915	1.01880366027	100	0	769.83	400.3116	0	0	0	0	0	0	0	128.305	384.915	384.915	0	;
	53	0	0	250.375	-250.375	1.03186997421	100	0	500.75	260.39	0	0	0	0	0	0	0	83.45833333	250.375	250.375	0	;
	53	0	0	266.5	-266.5	1.03186997421	100	0	533	277.16	0	0	0	0	0	0	0	88.83333333	266.5	266.5	0	;
	53	0	0	191	-191	1.03186997421	100	0	382	198.64	0	0	0	0	0	0	0	63.66666667	191	191	0	;
	53	0	0	423	-423	1.03186997421	100	0	846	439.92	0	0	0	0	0	0	0	141	423	423	0	;
	53	0	0	0	0	1.03186997421	100	0	0	0	0	0	0	0	0	0	0	0	0	0	0	;
	53	0	0	0	0	1.03186997421	100	0	0	0	0	0	0	0	0	0	0	0	0	0	0	;
	53	481.753631472	27.8004161756	250	-250	1.03186997421	100	1	500	200	0	0	0	0	0	0	0	55	165	250	0	;
	53	481.753631472	27.8004161756	250	-250	1.03186997421	100	1	500	200	0	0	0	0	0	0	0	55	165	250	0	;
	53	481.753631472	27.8004161756	250	-250	1.03186997421	100	1	500	200	0	0	0	0	0	0	0	55	165	250	0	;
	53	481.753631472	27.8004161756	250	-250	1.03186997421	100	1	500	200	0	0	0	0	0	0	0	55	165	250	0	;
	53	481.753631472	27.8004161756	250	-250	1.03186997421	100	1	500	200	0	0	0	0	0	0	0	55	165	250	0	;
	53	481.753631472	27.8004161756	250	-250	1.03186997421	100	1	500	200	0	0	0	0	0	0	0	55	165	250	0	;
	53	1004.65156418	14.2009933852	510	-510	1.03186997421	100	1	1020	408	0	0	0	0	0	0	0	112.2	336.6	510	0	;
	53	1004.65156418	14.2009933852	510	-510	1.03186997421	100	1	1020	408	0	0	0	0	0	0	0	112.2	336.6	510	0	;
	57	0	0	50.85	-50.85	1.02292073408	100	0	101.7	52.884	0	0	0	0	0	0	0	16.95	50.85	50.85	0	;
	58	0	0	0	0	1.03333364727	100	0	0	0	0	0	0	0	0	0	0	0	0	0	0	;
	59	0	0	173.165	-173.165	1.03656914702	100	0	346.33	180.0916	0	0	0	0	0	0	0	57.72166667	173.165	173.165	0	;
	59	0	0	0	0	1.03656914702	100	0	0	0	0	0	0	0	0	0	0	0	0	0	0	;
	59	0	0	0	0	1.03656914702	100	0	0	0	0	0	0	0	0	0	0	0	0	0	0	;
	59	0	0	0	0	1.03656914702	100	0	0	0	0	0	0	0	0	0	0	0	0	0	0	;
	59	0	0	0	0	1.03656914702	100	0	0	0	0	0	0	0	0	0	0	0	0	0	0	;
	59	478.323112494	28.2103024259	250	-250	1.03656914702	100	1	500	200	0	0	0	0	0	0	0	55	165	250	0	;
	59	478.323112494	28.2103024259	250	-250	1.03656914702	100	1	500	200	0	0	0	0	0	0	0	55	165	250	0	;
	59	478.323112494	28.2103024259	250	-250	1.03656914702	100	1	500	200	0	0	0	0	0	0	0	55	165	250	0	;
	59	478.323112494	28.2103024259	250	-250	1.03656914702	100	1	500	200	0	0	0	0	0	0	0	55	165	250	0	;
	59	1031.3980024	14.734329742	525	-525	1.03656914702	100	1	1050	420	0	0	0	0	0	0	0	115.5	346.5	525	0	;
	59	1031.3980024	14.734329742	525	-525	1.03656914702	100	1	1050	420	0	0	0	0	0	0	0	115.5	346.5	525	0	;
	62	0	0	0	0	1.02350403593	100	0	0	0	0	0	0	0	0	0	0	0	0	0	0	;
	64	0	0	265.2205	-265.2205	1.02280084818	100	0	530.441	275.82932	0	0	0	0	0	0	0	88.40683333	265.2205	265.2205	0	;
	70	0	0	215.6	-215.6	1.01198572191	100	0	431.2	224.224	0	0	0	0	0	0	0	71.86666667	215.6	215.6	0	;
	71	1029.06030215	-7.31531793576	520	-520	1.01644625535	100	1	1040	416	0	0	0	0	0	0	0	114.4	343.2	520	0	;
	73	0	0	0	0	1.01278380356	100	0	0	0	0	0	0	0	0	0	0	0	0	0	0	;
	73	0	0	0	0	1.01278380356	100	0	0	0	0	0	0	0	0	0	0	0	0	0	0	;
	73	587.052244505	19.1355049487	297.5	-297.5	1.01278380356	100	1	595	238	0	0	0	0	0	0	0	65.45	196.35	297.5	0	;
	73	587.052244505	19.1355049487	297.5	-297.5	1.01278380356	100	1	595	238	0	0	0	0	0	0	0	65.45	196.35	297.5	0	;
	79	0	0	424	-424	0.996692652028	100	0	848	440.96	0	0	0	0	0	0	0	141.3333333	424	424	0	;
	75	728.356403976	17.2632515435	511	-511	1.01564328259	100	1	1022	408.8	0	0	0	0	0	0	0	112.42	337.26	511	0	;
	75	761.750637805	17.2632515435	511	-511	1.01564328259	100	1	1022	408.8	0	0	0	0	0	0	0	112.42	337.26	511	0	;
	82	921.760997486	39.268293079	475	-475	1.01202833001	100	1	950	902.5	0	0	0	0	0	0	0	28.5	85.5	475	0	;
	82	921.760997486	39.268293079	475	-475	1.01202833001	100	1	950	902.5	0	0	0	0	0	0	0	28.5	85.5	475	0	;
	82	970.092718337	38.3981592669	500	-500	1.01202833001	100	1	1000	950	0	0	0	0	0	0	0	30	90	500	0	;
	82	970.092718337	38.3981592669	500	-500	1.01202833001	100	1	1000	950	0	0	0	0	0	0	0	30	90	500	0	;
	82	970.092718337	38.3981592669	500	-500	1.01202833001	100	1	1000	950	0	0	0	0	0	0	0	30	90	500	0	;
	82	970.092718337	38.3981592669	500	-500	1.01202833001	100	1	1000	950	0	0	0	0	0	0	0	30	90	500	0	;
	82	1357.16756822	34.0630443159	700	-700	1.01202833001	100	1	1400	1330	0	0	0	0	0	0	0	42	126	700	0	;
	87	0	0	180.8	-180.8	1.00083707525	100	0	361.6	188.032	0	0	0	0	0	0	0	60.26666667	180.8	180.8	0	;
	98	0	0	44	-44	1.02096976443	100	0	88	45.76	0	0	0	0	0	0	0	14.66666667	44	44	0	;
	99	0	0	24.15	-24.15	1.02148509335	100	0	48.3	25.116	0	0	0	0	0	0	0	8.05	24.15	24.15	0	;
	100	400.424639607	25.5664054436	225	-225	1.03580311236	100	1	450	234	0	0	0	0	0	0	0	75	225	225	0	;
	100	0	0	225	-225	1.03580311236	100	0	450	234	0	0	0	0	0	0	0	75	225	225	0	;
	100	0	0	225	-225	1.03580311236	100	0	450	234	0	0	0	0	0	0	0	75	225	225	0	;
	100	529.089101989	21.0317138699	275	-275	1.03580311236	100	1	550	220	0	0	0	0	0	0	0	60.5	181.5	275	0	;
	100	478.501581062	23.1611460446	250	-250	1.03580311236	100	1	500	200	0	0	0	0	0	0	0	55	165	250	0	;
	100	0	0	0	0	1.03580311236	100	0	0	0	0	0	0	0	0	0	0	0	0	0	0	;
	100	0	0	0	0	1.03580311236	100	0	0	0	0	0	0	0	0	0	0	0	0	0	0	;
	100	478.501581062	23.1611460446	250	-250	1.03580311236	100	1	500	200	0	0	0	0	0	0	0	55	165	250	0	;
	100	478.501581062	23.1611460446	250	-250	1.03580311236	100	1	500	200	0	0	0	0	0	0	0	55	165	250	0	;
	100	1000.64377613	10.3052399624	509.515	-509.515	1.03580311236	100	1	1019.03	407.612	0	0	0	0	0	0	0	112.0933	336.2799	509.515	0	;
	100	1000.64377613	10.3052399624	509.515	-509.515	1.03580311236	100	1	1019.03	407.612	0	0	0	0	0	0	0	112.0933	336.2799	509.515	0	;
	106	986.727651449	8.10064890921	509	-509	1.03174040216	100	1	1018	407.2	0	0	0	0	0	0	0	111.98	335.94	509	0	;
	108	0	0	359.2	-359.2	1.03032236449	100	0	718.4	373.568	0	0	0	0	0	0	0	119.7333333	359.2	359.2	0	;
	124	938.385745313	0.598971558666	475	-475	1.03579428131	100	1	950	902.5	0	0	0	0	0	0	0	28.5	85.5	475	0	;
	124	938.385745313	0.598971558666	475	-475	1.03579428131	100	1	950	902.5	0	0	0	0	0	0	0	28.5	85.5	475	0	;
	124	988.055139576	-0.0344937077564	500	-500	1.03579428131	100	1	1000	950	0	0	0	0	0	0	0	30	90	500	0	;
	124	988.055139576	-0.0344937077564	500	-500	1.03579428131	100	1	1000	950	0	0	0	0	0	0	0	30	90	500	0	;
	124	988.055139576	-0.0344937077564	500	-500	1.03579428131	100	1	1000	950	0	0	0	0	0	0	0	30	90	500	0	;
	124	988.055139576	-0.0344937077564	500	-500	1.03579428131	100	1	1000	950	0	0	0	0	0	0	0	30	90	500	0	;
	128	0	0	57.623	-57.623	1.02052927775	100	0	115.246	59.92792	0	0	0	0	0	0	0	19.20766667	57.623	57.623	0	;
	134	0	0	262.75	-262.75	1.0224456635	100	0	525.5	273.26	0	0	0	0	0	0	0	87.58333333	262.75	262.75	0	;
	134	0	0	432.1	-432.1	1.0224456635	100	0	864.2	449.384	0	0	0	0	0	0	0	144.0333333	432.1	432.1	0	;
	134	0	0	247.3	-247.3	1.0224456635	100	0	494.6	257.192	0	0	0	0	0	0	0	82.43333333	247.3	247.3	0	;
	134	0	0	247.3	-247.3	1.0224456635	100	0	494.6	257.192	0	0	0	0	0	0	0	82.43333333	247.3	247.3	0	;
	137	319.688395162	16.5395768131	170	-170	1.01977798033	100	1	340	136	0	0	0	0	0	0	0	37.4	112.2	170	0	;
	137	309.812569033	17.1575634196	164.3	-164.3	1.01977798033	100	1	328.6	131.44	0	0	0	0	0	0	0	36.146	108.438	164.3	0	;
	156	0	0	185.35	-185.35	0.992048039052	100	0	370.7	192.764	0	0	0	0	0	0	0	61.78333333	185.35	185.35	0	;
	160	0	0	0	0	1.00053175507	100	0	0	0	0	0	0	0	0	0	0	0	0	0	0	;
	166	689.206829089	39.9644676718	350	-350	0.99727404047	100	1	700	665	0	0	0	0	0	0	0	21	63	350	0	;
	166	689.206829089	39.9644676718	350	-350	0.99727404047	100	1	700	665	0	0	0	0	0	0	0	21	63	350	0	;
	166	689.206829089	39.9644676718	350	-350	0.99727404047	100	1	700	665	0	0	0	0	0	0	0	21	63	350	0	;
	166	986.504914976	39.0213059608	500	-500	0.99727404047	100	1	1000	950	0	0	0	0	0	0	0	30	90	500	0	;
	166	986.504914976	39.0213059608	500	-500	0.99727404047	100	1	1000	950	0	0	0	0	0	0	0	30	90	500	0	;
	167	0	0	150	-150	0.996195746649	100	0	300	156	0	0	0	0	0	0	0	50	150	150	0	;
	167	0	0	225	-225	0.996195746649	100	0	450	234	0	0	0	0	0	0	0	75	225	225	0	;
	167	0	0	225	-225	0.996195746649	100	0	450	234	0	0	0	0	0	0	0	75	225	225	0	;
	167	0	0	435.95	-435.95	0.996195746649	100	0	871.9	453.388	0	0	0	0	0	0	0	145.3166667	435.95	435.95	0	;
	167	0	0	221.4	-221.4	0.996195746649	100	0	442.8	230.256	0	0	0	0	0	0	0	73.8	221.4	221.4	0	;
	172	0	0	22.918	-22.918	0.991857706443	100	0	45.836	23.83472	0	0	0	0	0	0	0	7.639333333	22.918	22.918	0	;
	175	639.390139433	31.9028375064	325	-325	1.00321598272	100	1	650	617.5	0	0	0	0	0	0	0	19.5	58.5	325	0	;
	175	936.389330203	30.3664134188	475	-475	1.00321598272	100	1	950	902.5	0	0	0	0	0	0	0	28.5	85.5	475	0	;
	175	936.389330203	30.3664134188	475	-475	1.00321598272	100	1	950	902.5	0	0	0	0	0	0	0	28.5	85.5	475	0	;
	175	985.936146004	30.195805658	500	-500	1.00321598272	100	1	1000	950	0	0	0	0	0	0	0	30	90	500	0	;
	175	985.936146004	30.195805658	500	-500	1.00321598272	100	1	1000	950	0	0	0	0	0	0	0	30	90	500	0	;
	175	1382.55678258	29.3203976438	700	-700	1.00321598272	100	1	1400	1330	0	0	0	0	0	0	0	42	126	700	0	;
	175	1382.55678258	29.3203976438	700	-700	1.00321598272	100	1	1400	1330	0	0	0	0	0	0	0	42	126	700	0	;
	180	0	0	13.15	-13.15	1.00271816204	100	0	26.3	13.676	0	0	0	0	0	0	0	4.383333333	13.15	13.15	0	;
	186	0	0	225	-225	0.996654317572	100	0	450	234	0	0	0	0	0	0	0	75	225	225	0	;
	186	384.230341117	32.5183275841	225	-225	0.996654317572	100	1	450	234	0	0	0	0	0	0	0	75	225	225	0	;
	186	0	0	225	-225	0.996654317572	100	0	450	234	0	0	0	0	0	0	0	75	225	225	0	;
	186	0	0	225	-225	0.996654317572	100	0	450	234	0	0	0	0	0	0	0	75	225	225	0	;
	190	0	0	0	0	1	100	0	0	0	0	0	0	0	0	0	0	0	0	0	0	;
	190	0	0	0	0	1	100	0	0	0	0	0	0	0	0	0	0	0	0	0	0	;
	190	0	0	0	0	1	100	0	0	0	0	0	0	0	0	0	0	0	0	0	0	;
	190	0	0	0	0	1	100	0	0	0	0	0	0	0	0	0	0	0	0	0	0	;
	190	968.90354771	-24.0551873929	520	-520	1	100	1	1040	416	0	0	0	0	0	0	0	114.4	343.2	520	0	;
	190	968.90354771	-24.0551873929	520	-520	1	100	1	1040	416	0	0	0	0	0	0	0	114.4	343.2	520	0	;
	193	0	0	0	0	1.02196787247	100	0	0	0	0	0	0	0	0	0	0	0	0	0	0	;
	193	0	0	0	0	1.02196787247	100	0	0	0	0	0	0	0	0	0	0	0	0	0	0	;
	193	0	0	0	0	1.02196787247	100	0	0	0	0	0	0	0	0	0	0	0	0	0	0	;
	193	0	0	0	0	1.02196787247	100	0	0	0	0	0	0	0	0	0	0	0	0	0	0	;
	193	0	0	0	0	1.02196787247	100	0	0	0	0	0	0	0	0	0	0	0	0	0	0	;
	193	0	0	0	0	1.02196787247	100	0	0	0	0	0	0	0	0	0	0	0	0	0	0	;
	193	478.045264504	8.66861923431	250	-250	1.02196787247	100	1	500	200	0	0	0	0	0	0	0	55	165	250	0	;
	193	478.045264504	8.66861923431	250	-250	1.02196787247	100	1	500	200	0	0	0	0	0	0	0	55	165	250	0	;
	71	1029.06030215	-7.31531793576	520	-520	1.01644625535	100	1	1040	416	0	0	0	0	0	0	0	114.4	343.2	520	0	;
	60	0	0	247.5	-247.5	1.02786453679	100	0	495	257.4	0	0	0	0	0	0	0	82.5	247.5	247.5	0	;
	42	0	0	512.7	-512.7	0.999196442876	100	0	1025.4	533.208	0	0	0	0	0	0	0	170.9	512.7	512.7	0	;
	11	0	0	0	0	1.02141890724	100	0	0	0	0	0	0	0	0	0	0	0	0	0	0	;
	172	0	0	59.486	-59.486	0.991857706443	100	0	118.972	61.86544	0	0	0	0	0	0	0	19.8286666667	59.486	59.486	0	;
	82	1357.16756822	34.0630443159	700	-700	1.01202833001	100	1	1400	1330	0	0	0	0	0	0	0	42	126	700	0	;
	75	743.722117961	16.7982271592	525	-525	1.01564328259	100	1	1050	420	0	0	0	0	0	0	0	115.5	346.5	525	0	;
	64	0	0	298.5855	-298.5855	1.02280084818	100	0	597.171	310.52892	0	0	0	0	0	0	0	99.5285	298.5855	298.5855	0	;
	160	0	0	135	-135	1.00053175507	100	0	270	140.4	0	0	0	0	0	0	0	45	135	135	0	;
	192	788.875195714	-14.2775064853	506	-506	0.99841804584	100	1	1012	526.24	0	0	0	0	0	0	0	168.666666667	506	506	0	;
	167	825.35107238	36.3549710666	552.3	-552.3	0.996195746649	100	1	1104.6	574.392	0	0	0	0	0	0	0	184.1	552.3	552.3	0	;
	75	0	0	525	-525	1.01564328259	100	0	1050	546	0	0	0	0	0	0	0	175	525	525	0	;
	62	0	0	135	-135	1.02350403593	100	0	270	140.4	0	0	0	0	0	0	0	45	135	135	0	;
	52	519.790900879	29.6012132885	280.5	-280.5	1.00911419033	100	1	561	291.72	0	0	0	0	0	0	0	93.5	280.5	280.5	0	;
	11	0	0	247.73	-247.73	1.02141890724	100	0	495.46	257.6392	0	0	0	0	0	0	0	82.5766666667	247.73	247.73	0	;
	24	0	0	142.5	-142.5	1.02329966739	100	0	285	148.2	0	0	0	0	0	0	0	47.5	142.5	142.5	0	;
	26	0	0	249	-249	1.02398447524	100	0	498	258.96	0	0	0	0	0	0	0	83	249	249	0	;
...
];

% branch data
%	fbus	tbus	r	x	b	rateA	rateB	rateC	ratio	angle	status	angmin	angmax	Pf	Qf	Pt	Qt
mpc.branch = [
	1	2	0.001953667	0.017794207	0.057753945	904	904	904	0	0	1	-30	30	205.809243611	-45.115878459	-204.971113114	46.7841769644	;
	1	3	0.002346024	0.021367842	0.069352749	904	904	904	0	0	1	-30	30	168.17822835	-38.5571113128	-167.50530383	37.5224485908	;
	1	66	0.002789894	0.025410654	0.082474341	904	904	904	0	0	1	-30	30	-442.537330914	76.8180038486	448.026554842	-35.2910575381	;
	2	3	0.000230027	0.002463512	0.207508013	2172	2172	2172	0	0	1	-30	30	-27.983548783	-9.26770662705	27.9852906133	-12.234447218	;
	2	4	0.001097043	0.009991982	0.032430577	904	904	904	0	0	1	-30	30	82.0171438319	-26.1709946301	-81.9396422609	23.508444927	;
	2	6	0.004587512	0.041783555	0.135615211	904	904	904	0	0	1	-30	30	68.086181587	-19.6306093968	-67.8740995882	7.46333089744	;
	3	4	0.000157872	0.001690763	0.142417379	2172	2172	2172	0	0	1	-30	30	528.673271268	-146.266602748	-528.218465173	136.34468907	;
	3	7	0.001539844	0.014025061	0.04552058	904	904	904	0	0	1	-30	30	84.460000865	-30.7534389131	-84.3421201922	27.0934554989	;
	3	28	0.000668777	0.007162388	0.603306441	2172	2172	2172	0	0	1	-30	30	-853.60168948	113.733197034	858.435770644	-124.363362159	;
	4	7	0.001330617	0.012119404	0.039335464	904	904	904	0	0	1	-30	30	24.3585274438	-14.5998219532	-24.3489219106	10.5907261533	;
	4	8	0.000413018	0.004423289	0.372585094	2172	2172	2172	0	0	1	-30	30	372.345961848	-81.6126805258	-371.780123451	48.8643340814	;
	5	16	0.00309813	0.028218105	0.091586372	904	904	904	0	0	1	-30	30	748.885831196	-13.1917578395	-732.288788127	154.763259272	;
	5	20	0.003233724	0.029453105	0.095594761	904	904	904	0	0	1	-30	30	687.103456546	-8.16153563549	-672.521975358	130.976565473	;
	5	66	0.002753227	0.025076687	0.081390398	904	904	904	0	0	1	-30	30	159.736819069	25.0991060462	-159.043190736	-27.2140038977	;
	5	70	0.001710666	0.015580931	0.050570403	904	904	904	0	0	1	-30	30	223.501377416	50.2876455847	-222.639443458	-47.6739632573	;
	6	8	0.001796592	0.016363559	0.053110546	904	904	904	0	0	1	-30	30	-23.640127047	-2.4741793072	23.6497625463	-2.97516077415	;
	6	11	0.001545809	0.014079394	0.045696926	904	904	904	0	0	1	-30	30	3.41857539943	-6.72842967356	-3.41812174873	1.96757368684	;
	7	9	0.000740338	0.006743076	0.021885732	904	904	904	0	0	1	-30	30	122.506536233	-43.672238384	-122.387128197	42.4735289765	;
	7	14	0.000255269	0.002733843	0.230278712	2172	2172	2172	0	0	1	-30	30	338.43824094	-122.389666356	-338.127983452	101.651738134	;
	7	28	0.000583767	0.00625196	0.526618746	2172	2172	2172	0	0	1	-30	30	-1169.03516407	213.816914665	1177.01274697	-182.994365832	;
	8	10	0.000160584	0.000184873	0.901984702	1416	1416	1416	0	0	1	-30	30	-999.857935421	-70.3284906666	1001.39804942	-22.1195045708	;
	8	11	0.000158062	0.001692798	0.142588761	2172	2172	2172	0	0	1	-30	30	258.200219223	-41.3586676257	-258.097438507	27.5856853036	;
	8	14	0.000269282	0.002883925	0.242920462	2172	2172	2172	0	0	1	-30	30	-148.073826372	-69.6511222772	148.138821417	44.9620651354	;
	9	12	0.000119405	0.000137466	0.167672111	708	708	708	0	0	1	-30	30	182.014746836	-109.668773382	-181.965338483	92.1776241591	;
	9	13	0.000176983	0.000203752	0.248523638	708	708	708	0	0	1	-30	30	-34.6972980422	-54.482000388	34.7022426842	28.4724183888	;
	9	15	0.000297907	0.000342968	0.41832935	708	708	708	0	0	1	-30	30	-354.453414478	97.3154399968	354.851462793	-140.668620101	;
	10	14	0.00105221	0.00958364	0.031105236	904	904	904	0	0	1	-30	30	-24.2545947258	-3.11765159054	24.2605334405	-0.0838852981303	;
	10	24	0.000243464	0.000280289	1.367512381	1416	1416	1416	0	0	1	-30	30	-153.755694575	-97.3306252496	153.812255272	-45.7411529462	;
	11	21	0.00015784	0.00169041	0.142387631	2172	2172	2172	0	0	1	-30	30	-239.893249387	-67.1702182104	239.985714532	53.2853426289	;
	11	25	0.00110679	0.010080759	0.032718716	904	904	904	0	0	1	-30	30	-48.8221823512	-12.0347554294	48.8486006212	8.8566287093	;
	12	14	0.000665432	0.00606083	0.019671394	904	904	904	0	0	1	-30	30	9.08431053341	-6.64543455993	-9.0835852231	4.59289859398	;
	12	18	0.000258897	0.000298056	0.363549377	708	708	708	0	0	1	-30	30	-156.81014195	-118.501307055	156.895457446	80.5289113054	;
	13	16	0.000661549	0.006025463	0.019556605	904	904	904	0	0	1	-30	30	-37.7823169625	-10.0065351045	37.7918470757	8.04432731072	;
	13	17	0.000189196	0.000217813	0.265674267	708	708	708	0	0	1	-30	30	-275.381644817	-46.7923273589	275.520643313	19.1221303089	;
	13	22	0.000821755	0.00748463	0.024292563	904	904	904	0	0	1	-30	30	-32.5020725741	-3.49033179214	32.5104029052	1.02186370066	;
	14	18	9.94e-05	0.000114489	0.558582953	1416	1416	1416	0	0	1	-30	30	-580.115467775	105.639173559	580.452222335	-163.761331272	;
	14	19	2.7e-05	6.2e-05	1.344867636	1906	1906	1906	0	0	1	-30	30	209.734055777	-216.127441322	-209.717236955	75.3471643575	;
	14	23	0.000322118	0.000370841	0.45232683	708	708	708	0	0	1	-30	30	164.107788641	-78.7431333804	-164.015608632	31.5030361649	;
	15	16	0.000110729	0.000127478	0.155489196	708	708	708	0	0	1	-30	30	-400.658872631	111.545545618	400.843628685	-127.631766259	;
	16	17	1.61e-05	3.7e-05	7.216516162	5718	5718	5718	0	0	1	-30	30	4018.56926865	-1580.27488755	-4015.86779848	829.957455294	;
	16	20	0.000640865	0.005837068	0.018945138	904	904	904	0	0	1	-30	30	-145.263439312	54.1585280469	145.411003749	-54.7966828349	;
	16	22	3.29e-05	7.57e-05	1.640782241	1906	1906	1906	0	0	1	-30	30	-47.3899342231	407.374962921	47.4670235775	-579.179223164	;
	16	28	0.000193401	0.002071259	0.697869898	4344	4344	4344	0	0	1	-30	30	-3825.88202659	885.503059011	3854.44899242	-652.140626356	;
	17	18	8.5e-06	1.95e-05	1.693948976	3812	3812	3812	0	0	1	-30	30	3216.6597385	-901.448327796	-3215.76707369	725.96868108	;
	18	19	3.3e-05	3.8e-05	0.742	2832	2832	2832	0	0	1	-30	30	1959.05592038	-715.464278845	-1957.70314069	639.29705782	;
	18	30	0.000754369	0.006870878	0.022300533	904	904	904	0	0	1	-30	30	-27.3879203866	18.0528787616	27.3959799623	-20.3138545686	;
	19	23	4.24e-05	4.88e-05	0.952412124	2832	2832	2832	0	0	1	-30	30	1083.31249556	-257.382105974	-1082.8198565	158.254450428	;
	20	22	0.000644357	0.005868869	0.019048354	904	904	904	0	0	1	-30	30	141.899716815	-48.1548448364	-141.761716921	47.4194565281	;
	21	25	0.000588113	0.0053566	0.017385701	904	904	904	0	0	1	-30	30	-16.0189724096	-2.81759876692	16.0204355311	1.01188115419	;
	21	34	9.49e-05	0.001016882	0.085654572	2172	2172	2172	0	0	1	-30	30	-466.966212399	-147.075687043	467.182477616	140.416472175	;
	22	29	0.000157753	0.000181614	0.886083495	1416	1416	1416	0	0	1	-30	30	430.545063419	140.180537951	-430.213557114	-232.553511244	;
	22	36	0.000114952	0.001231098	0.103698609	2172	2172	2172	0	0	1	-30	30	-13.7316520423	71.9937956416	13.7384356986	-82.7770802983	;
	22	38	0.000222736	0.002385427	0.200930653	2172	2172	2172	0	0	1	-30	30	-477.503792055	218.074651436	478.099566542	-232.661181194	;
	22	46	0.000425686	0.004558955	0.384012537	2172	2172	2172	0	0	1	-30	30	-209.057222695	75.5899794707	209.2719935	-113.395750202	;
	23	24	5.52e-05	0.000503	0.0147	2712	2712	2712	0	0	1	-30	30	218.902765846	-98.2508978862	-218.87247494	96.9881634277	;
	23	32	2.02e-05	4.64e-05	1.00675716	1906	1906	1906	0	0	1	-30	30	457.486748831	-88.9930269346	-457.446091532	-16.2532286096	;
	23	33	0.000169968	0.000195677	0.238673524	708	708	708	0	0	1	-30	30	193.12318472	-41.3122595367	-193.061253978	16.415202412	;
	24	26	0.000118	0.000136	0.664	1416	1416	1416	0	0	1	-30	30	-513.671183477	-104.213802006	513.973954025	34.9859689195	;
	25	26	0.00041452	0.003775492	0.012253963	904	904	904	0	0	1	-30	30	-66.4064458814	-20.5447312776	66.4254826691	19.4345003683	;
	25	34	0.000619848	0.00564564	0.018323828	904	904	904	0	0	1	-30	30	-69.1726921715	-23.4780112085	69.2040373333	21.8428164624	;
	26	32	0.000607908	0.005536893	0.01797087	904	904	904	0	0	1	-30	30	-3.45111257208	20.1597467556	3.45376325667	-22.0178684082	;
	26	34	4.5e-05	0.000103577	2.245327702	1906	1906	1906	0	0	1	-30	30	-1327.84575517	-194.598564376	1328.60498721	-39.2387247861	;
	27	34	9.33e-05	0.000999417	0.336734	4344	4344	4344	0	0	1	-30	30	358.013028772	46.3304925137	-357.895698655	-80.4599801272	;
	28	38	0.001685665	0.015353221	0.049831335	904	904	904	0	0	1	-30	30	441.003636351	-61.0480923418	-437.769575369	85.3449745996	;
	28	41	0.002015591	0.018358223	0.059584548	904	904	904	0	0	1	-30	30	-113.967479078	90.5497554606	114.392549399	-92.7378493514	;
	28	50	9.99e-05	0.00321	1.63	7290	7290	7290	0	0	1	-30	30	1339.3401978	-275.344282605	-1337.56748453	163.235805874	;
	28	80	0.000122152	0.003924627	7.991861101	14580	14580	14580	0	0	1	-30	30	-7935.67858453	1358.85963785	8013.96761189	340.432787532	;
	29	30	8.04e-06	9.26e-06	0.04515506	1416	1416	1416	0	0	1	-30	30	627.719670352	12.1724043885	-627.68936065	-16.8594682094	;
	29	36	3.7e-05	8.52e-05	1.846241882	1906	1906	1906	0	0	1	-30	30	-770.013912689	143.659981391	770.244103585	-336.220287525	;
	30	31	0.00033011	0.003006676	0.009758648	904	904	904	0	0	1	-30	30	150.046518242	-3.30683793678	-149.975418859	2.93437553087	;
	31	33	0.000235829	0.000271499	0.331156608	708	708	708	0	0	1	-30	30	-192.761376901	-31.9143719651	192.845722842	-2.60643974107	;
	31	36	0.00107165	0.0097607	0.031679912	904	904	904	0	0	1	-30	30	-54.460929976	-1.00347360954	54.4913544612	-2.03124479919	;
	32	33	6.05e-05	6.97e-05	0.1912274	1062	1062	1062	0	0	1	-30	30	308.991556053	3.31971761425	-308.936244033	-23.2594236959	;
	32	37	0.000239942	0.002569698	0.216452349	2172	2172	2172	0	0	1	-30	30	-101.971648994	-15.0041607033	101.995526828	-7.39387387686	;
	32	44	0.000338016	0.003620039	0.304925228	2172	2172	2172	0	0	1	-30	30	-222.945519124	54.4165661387	223.122099388	-84.3746313494	;
	34	37	6.47e-05	0.000692975	0.058371101	2172	2172	2172	0	0	1	-30	30	-208.497004845	230.646392248	208.557453697	-236.118682524	;
	35	37	0.000950447	0.008656772	0.028096937	904	904	904	0	0	1	-30	30	-31.07197319	-21.0213770021	31.0842568049	18.1972884531	;
	35	40	0.001104834	0.01006295	0.032660912	904	904	904	0	0	1	-30	30	-212.609054137	5.0170934128	213.088380061	-4.06389775553	;
	36	38	0.000952048	0.00867136	0.028144286	904	904	904	0	0	1	-30	30	-128.234323119	52.3493826722	128.410369501	-53.6801459372	;
	36	43	0.001604892	0.014617531	0.047443535	904	904	904	0	0	1	-30	30	117.76159982	17.5996326547	-117.542624208	-20.5452800886	;
	36	44	0.000327256	0.003504805	0.295218756	2172	2172	2172	0	0	1	-30	30	-99.9928729933	39.8345144837	100.033715936	-70.227814389	;
	36	46	0.000315296	0.00337672	0.284429868	2172	2172	2172	0	0	1	-30	30	-277.021478393	85.955514587	277.283460127	-112.828701118	;
	37	40	0.000119	0.00127	0.429	4344	4344	4344	0	0	1	-30	30	-1481.21470343	137.641938622	1483.73764494	-155.625768301	;
	38	42	0.001675214	0.015258027	0.049522368	904	904	904	0	0	1	-30	30	86.2913187321	123.356918482	-85.9156383641	-124.980467895	;
	38	45	0.001624604	0.014797065	0.048026242	904	904	904	0	0	1	-30	30	1.47922339883	-8.22619733616	-1.47867575862	3.23641053732	;
	38	46	0.001525585	0.013895192	0.045099066	904	904	904	0	0	1	-30	30	13.2684883455	-10.2055528327	-13.2649963093	5.54670651298	;
	38	84	0.000977268	0.010466224	0.881597169	2172	2172	2172	0	0	1	-30	30	-800.304170378	198.295638082	806.887779298	-218.166885772	;
	39	44	0.000549539	0.00500526	0.064981493	1808	1808	1808	0	0	1	-30	30	-627.953782539	-51.6499860185	630.07005161	64.1906682613	;
	40	44	0.000186834	0.002000932	0.16854368	2172	2172	2172	0	0	1	-30	30	666.66759809	33.3691736061	-665.871123682	-42.447553331	;
	40	47	0.000177428	0.001900194	0.160058219	2172	2172	2172	0	0	1	-30	30	1130.83672708	154.854357414	-1128.62394253	-147.831985183	;
	41	42	0.001299581	0.011836722	0.038417974	904	904	904	0	0	1	-30	30	837.531355456	-34.734986935	-828.423726914	113.84480364	;
	41	52	0.003101751	0.028251087	0.091693421	904	904	904	0	0	1	-30	30	48.6190780376	-37.5007096005	-48.5124371056	29.2074440602	;
	41	77	0.002217352	0.020195883	0.065548969	904	904	904	0	0	1	-30	30	-196.707976577	26.3900388621	197.583334668	-24.9828369321	;
	42	46	0.00172419	0.015704108	0.050970195	904	904	904	0	0	1	-30	30	-72.0424680735	-128.51606665	72.4061490404	126.631174843	;
	42	84	0.004178797	0.038060939	0.123532864	904	904	904	0	0	1	-30	30	-247.936938297	16.2198531738	250.530868172	-5.00644225586	;
	43	44	0.000449352	0.004092749	0.013283673	904	904	904	0	0	1	-30	30	-503.34316869	-15.5033655681	504.442396521	24.1342112639	;
	44	48	0.001280818	0.011665829	0.037863315	904	904	904	0	0	1	-30	30	-111.717458939	13.2619913201	111.873615485	-15.7868365597	;
	44	57	0.000681396	0.007297531	0.614689901	2172	2172	2172	0	0	1	-30	30	-940.950565999	62.4767112092	946.794712493	-64.0951967052	;
	45	46	0.000111099	0.001189836	0.100222927	2172	2172	2172	0	0	1	-30	30	137.201850072	-23.6277317706	-137.181395041	13.4145765122	;
	45	50	0.00040114	0.004296079	0.361869864	2172	2172	2172	0	0	1	-30	30	-603.814151624	20.5006934916	605.225259149	-43.0911815898	;
	46	48	0.001260894	0.011484355	0.037274311	904	904	904	0	0	1	-30	30	-62.8326245797	-0.208439575712	62.8804810438	-3.23812792386	;
	46	50	0.000334595	0.003583402	0.301839233	2172	2172	2172	0	0	1	-30	30	-769.423685429	38.7843379954	771.336115276	-49.7533345521	;
	47	49	0.001906713	0.017366547	0.056365905	904	904	904	0	0	1	-30	30	-160.546285258	14.0820705115	161.025534507	-15.5648061554	;
	47	60	0.000752607	0.008060181	0.67892992	2172	2172	2172	0	0	1	-30	30	-1352.03818722	41.7997936887	1365.34834397	29.6813251885	;
	48	49	0.001480551	0.013485018	0.043767781	904	904	904	0	0	1	-30	30	-50.4417835294	19.1985756412	50.4844827577	-23.361883497	;
	48	51	0.001270961	0.011576049	0.037571917	904	904	904	0	0	1	-30	30	-69.04116374	21.2858517115	69.1058814975	-24.6054846934	;
	49	51	0.000899122	0.008189302	0.0598043	1356	1356	1356	0	0	1	-30	30	-14.4859069742	-5.71068302176	14.4877835743	-0.481737127585	;
	49	53	0.002230934	0.020319589	0.065950477	904	904	904	0	0	1	-30	30	-561.154764544	23.5205310064	567.938534007	31.3330195653	;
	50	51	0.000183433	0.001964511	0.165475847	2172	2172	2172	0	0	1	-30	30	626.284818092	46.1825959651	-625.589681516	-55.9606500933	;
	50	54	0.000298513	0.003196975	0.269289514	2172	2172	2172	0	0	1	-30	30	-602.187865001	67.4195786467	603.244775111	-84.16925628	;
	50	62	4.12e-05	0.001322961	2.693994224	14580	14580	14580	0	0	1	-30	30	-1952.14893272	-229.566411076	1953.6574892	-3.5844061438	;
	51	55	0.001436718	0.01308578	0.042471992	904	904	904	0	0	1	-30	30	-402.347598659	16.2747514855	404.59158645	-0.267653555737	;
	51	57	0.00189377	0.017248658	0.055983277	904	904	904	0	0	1	-30	30	-274.846640129	11.2636626569	276.227634657	-4.5217211833	;
	52	54	0.001933006	0.017606027	0.057143176	904	904	904	0	0	1	-30	30	170.959796617	-84.9696321471	-170.277165947	85.3013116489	;
	52	56	0.001462649	0.013321963	0.04323856	904	904	904	0	0	1	-30	30	179.321049236	-52.3720746607	-178.823022727	52.4862403356	;
	52	84	0.001585688	0.014442614	0.046875812	904	904	904	0	0	1	-30	30	-66.0983488792	29.966643896	66.1826812307	-33.9552262653	;
	53	55	0.000288514	0.003089893	1.041078801	4344	4344	4344	0	0	1	-30	30	1974.44702777	87.3950941543	-1963.82825532	-83.652904717	;
	53	58	0.000270064	0.002892303	0.243626177	2172	2172	2172	0	0	1	-30	30	-564.649683283	-8.13411424203	565.458419288	-9.18162616427	;
	53	63	2.79e-05	0.000896312	1.825192122	14580	14580	14580	0	0	1	-30	30	1820.91604417	15.68242659	-1820.04387849	-181.747295549	;
	54	55	0.002132132	0.019419691	0.063029714	904	904	904	0	0	1	-30	30	-109.625884125	-6.52877256874	109.872077354	2.18519610742	;
	54	61	0.001817125	0.016550571	0.053717525	904	904	904	0	0	1	-30	30	-24.7743356871	-6.35344661015	24.7852626258	0.851564606521	;
	54	62	0.000345552	0.003700749	0.311723639	2172	2172	2172	0	0	1	-30	30	-174.356067963	-78.4539569892	174.469751226	47.1077946461	;
	55	57	0.000154208	0.001651521	0.139111914	2172	2172	2172	0	0	1	-30	30	318.605224453	15.6729338454	-318.455094303	-28.6332187298	;
	55	64	0.003142511	0.028622331	0.092898352	904	904	904	0	0	1	-30	30	6.29702075308	-2.12994396953	-6.29560700866	-7.5845785817	;
	56	61	0.001408725	0.01283082	0.041644479	904	904	904	0	0	1	-30	30	15.43034117	-68.8255084851	-15.3660769272	65.0988737111	;
	57	60	0.001430752	0.01303144	0.042295623	904	904	904	0	0	1	-30	30	-249.321387646	-9.81902121197	250.172140635	13.1206543221	;
	57	97	0.000552148	0.005913329	0.498094995	2172	2172	2172	0	0	1	-30	30	-1140.88195611	-37.1853876325	1147.75096793	58.1754840113	;
	58	59	6.17e-05	0.00066	0.501	6516	6516	6516	0	0	1	-30	30	-4047.52715548	-104.634839334	4056.99703279	152.269901597	;
	58	63	0.00017	0.00182	0.613	4344	4344	4344	0	0	1	-30	30	1794.80004248	-13.049054608	-1789.67081305	2.68525503321	;
	60	63	0.000254942	0.002730347	0.229984176	2172	2172	2172	0	0	1	-30	30	-634.176725786	-47.7071271022	635.150264944	33.7726504447	;
	60	100	0.000568608	0.006089613	0.512943851	2172	2172	2172	0	0	1	-30	30	-1164.64477742	-13.424952908	1171.94587258	37.0044202145	;
	61	62	0.000190755	0.001737417	0.022556263	1808	1808	1808	0	0	1	-30	30	-136.651115382	-94.1940501774	136.701053218	92.2902265853	;
	62	63	6.31e-05	0.00202596	4.125535352	14580	14580	14580	0	0	1	-30	30	-2940.94306001	-396.029347599	2946.17239267	128.78150701	;
	62	64	0.00024797	0.002655684	0.223695124	2172	2172	2172	0	0	1	-30	30	-493.455290181	64.6384106251	494.045479673	-81.7349826566	;
	63	97	0.001705746	0.015536123	0.050424972	904	904	904	0	0	1	-30	30	-114.706486693	2.19803082023	114.91820714	-5.63143910379	;
	64	96	0.001229987	0.011202852	0.036360649	904	904	904	0	0	1	-30	30	-440.658547547	-3.52218383074	442.941666984	20.4886577532	;
	64	98	0.00145865	0.013285543	0.043120356	904	904	904	0	0	1	-30	30	28.9923211543	8.70731492481	-28.9789252056	-13.088148141	;
	64	99	0.00122871	0.011191219	0.036322892	904	904	904	0	0	1	-30	30	63.5189894917	3.36346990099	-63.4712754513	-6.72381650887	;
	64	102	0.00020466	0.002191839	0.73849704	4344	4344	4344	0	0	1	-30	30	-1063.60789859	26.1652225955	1065.82927735	-79.7060783535	;
	65	68	0.001222283	0.011132689	0.036132921	904	904	904	0	0	1	-30	30	-297.023765826	3.55233727364	298.080757446	2.37447814768	;
	65	69	0.003164497	0.028822584	0.093548306	904	904	904	0	0	1	-30	30	214.940437481	-15.9522392499	-213.503995303	19.5042597155	;
	66	67	0.001903714	0.01733923	0.056277244	904	904	904	0	0	1	-30	30	-290.814762298	56.0117934466	292.449787849	-46.8698364953	;
	66	70	0.001986687	0.018094956	0.058730073	904	904	904	0	0	1	-30	30	-28.4120172244	2.91126525765	28.4283414516	-8.78011577415	;
	67	69	0.001285688	0.011710181	0.038007266	904	904	904	0	0	1	-30	30	-318.16211432	44.0318240544	319.466787331	-36.0170114379	;
	68	69	0.00309092	0.02815243	0.091373212	904	904	904	0	0	1	-30	30	338.955886869	-7.35641430918	-335.500113181	29.4896911736	;
	68	71	0.000542799	0.0058132	0.489660838	2172	2172	2172	0	0	1	-30	30	-650.789093654	0.501178846264	653.02956148	-26.9620722439	;
	69	72	0.003845431	0.035024597	0.113677932	904	904	904	0	0	1	-30	30	204.938649171	-17.6393852922	-203.345547987	20.599487534	;
	70	72	0.001924592	0.017529395	0.056894456	904	904	904	0	0	1	-30	30	-62.4866697302	30.7384761061	62.5813292352	-35.676669634	;
	71	73	0.000429713	0.004602092	0.387646086	2172	2172	2172	0	0	1	-30	30	-681.01023756	135.269573776	683.039474646	-153.443188927	;
	71	78	0.005029715	0.045811184	0.148687523	904	904	904	0	0	1	-30	30	294.051292834	-28.9051397848	-289.819957768	52.0252482589	;
	72	74	0.001850173	0.016851572	0.054694473	904	904	904	0	0	1	-30	30	39.5116071719	4.95192091349	-39.4820576725	-10.2225932849	;
	73	75	0.000154736	0.001657168	0.139587554	2172	2172	2172	0	0	1	-30	30	-2127.56400394	53.4088709945	2134.39800378	5.42244691876	;
	73	76	0.003400257	0.030969904	0.100517777	904	904	904	0	0	1	-30	30	334.797762385	19.2417040488	-331.062308338	4.60757218259	;
	73	79	0.005323371	0.048485836	0.157368535	904	904	904	0	0	1	-30	30	330.105719074	15.2256556947	-324.422204325	20.6530532687	;
	73	80	0.003287737	0.029945065	0.097191498	904	904	904	0	0	1	-30	30	84.9241541297	11.8859979253	-84.683864283	-19.593631737	;
	73	81	0.001180594	0.012643784	1.065018618	2172	2172	2172	0	0	1	-30	30	1549.00573313	59.0704801253	-1521.24017467	130.506545713	;
	74	77	0.001050785	0.009570661	0.03106311	904	904	904	0	0	1	-30	30	367.334299206	16.9825265374	-365.928075437	-7.29894238444	;
	74	78	0.003080612	0.028058549	0.091068507	904	904	904	0	0	1	-30	30	-281.351780289	-16.1109449305	283.768206424	28.7775159596	;
	75	82	0.000690812	0.007398375	0.623184303	2172	2172	2172	0	0	1	-30	30	-92.7929273919	26.4960256574	92.8736184225	-89.6868655366	;
	76	79	0.00216439	0.019713499	0.063983315	904	904	904	0	0	1	-30	30	282.558559638	-13.2465572201	-280.825765674	22.6565767261	;
	77	81	0.002745828	0.0250093	0.081171682	904	904	904	0	0	1	-30	30	-315.386144667	48.4755786949	318.190854113	-31.0437232001	;
	78	81	0.002422622	0.022065501	0.071617111	904	904	904	0	0	1	-30	30	152.37595648	79.2250680662	-151.675409279	-80.1465937937	;
	79	80	0.003522928	0.032087205	0.104144155	904	904	904	0	0	1	-30	30	-410.761097496	40.8766584934	416.819862687	3.87144452334	;
	79	81	0.001905365	0.017354266	0.056326045	904	904	904	0	0	1	-30	30	199.716799519	-35.3250495325	-198.931464934	36.8686523097	;
	79	83	0.001772751	0.016146406	0.052405742	904	904	904	0	0	1	-30	30	259.683337855	6.07131735916	-258.478585719	-0.27750595095	;
	80	82	3.61e-05	0.00115912	2.360357594	14580	14580	14580	0	0	1	-30	30	-5785.1418072	-328.881198885	5797.11141589	473.052938	;
	81	84	0.00122041	0.011115623	0.144310127	1808	1808	1808	0	0	1	-30	30	1119.04589705	-116.606529558	-1103.59129027	242.869113141	;
	81	86	0.000662535	0.007095536	0.59767536	2172	2172	2172	0	0	1	-30	30	-1020.84044166	95.8920003317	1027.86125986	-80.4010024818	;
	82	85	0.004627741	0.042149964	0.136804449	904	904	904	0	0	1	-30	30	362.498423314	17.4767299961	-356.533945334	23.0490026021	;
	82	86	0.000927929	0.009937818	0.837088105	2172	2172	2172	0	0	1	-30	30	1646.256299	61.3683147679	-1621.60374496	117.955965782	;
	82	94	0.005001876	0.045557628	0.147864567	904	904	904	0	0	1	-30	30	175.045456648	9.34892487327	-173.535068139	-10.5398953606	;
	83	89	0.003668123	0.033409661	0.108436396	904	904	904	0	0	1	-30	30	-1.81417905385	-25.7522961849	1.82986124033	15.158902258	;
	85	86	0.000987046	0.00899012	0.029178874	904	904	904	0	0	1	-30	30	111.378331066	-47.5645640375	-111.233911614	45.9728838923	;
	86	87	0.000301405	0.003227955	0.271898989	2172	2172	2172	0	0	1	-30	30	292.987951247	-74.7472818389	-292.717782416	50.4362182884	;
	86	89	0.003643968	0.033189659	0.107722346	904	904	904	0	0	1	-30	30	240.150337851	-18.4282616317	-238.041311578	26.8846243191	;
	86	90	0.002477336	0.022563841	0.073234554	904	904	904	0	0	1	-30	30	32.9112640561	-1.46023265871	-32.8842947065	-5.60377692635	;
	86	92	0.000752885	0.008063158	0.67918067	2172	2172	2172	0	0	1	-30	30	-101.144828329	-12.8994114863	101.225231547	-54.0555790416	;
	87	90	0.002118269	0.019293421	0.062619884	904	904	904	0	0	1	-30	30	-10.1562256528	10.5595360004	10.1623736542	-16.7608504844	;
	87	95	0.000515412	0.005519901	0.464955523	2172	2172	2172	0	0	1	-30	30	336.649546543	-0.916482169447	-336.063816836	-39.2539923565	;
	88	92	0.001978682	0.018022046	0.058493431	904	904	904	0	0	1	-30	30	878.287278023	2.34093291681	-863.161578353	129.5565097	;
	88	94	0.002833759	0.025810183	0.083771075	904	904	904	0	0	1	-30	30	323.580168335	-3.88511413269	-320.639962689	22.2594408724	;
	89	93	0.001483845	0.013515018	0.043865152	904	904	904	0	0	1	-30	30	536.952747157	-90.5393244333	-532.545533524	126.277832367	;
	90	92	0.002453205	0.022344057	0.072521209	904	904	904	0	0	1	-30	30	-69.4111424334	2.84056517809	69.5307367415	-8.9832103544	;
	91	147	0.00275034	0.025050396	0.081305066	904	904	904	0	0	1	-30	30	-42.6617533148	0.282447314185	42.7105626272	-8.2697361754	;
	92	95	0.000460572	0.004932573	0.415483409	2172	2172	2172	0	0	1	-30	30	732.8181394	-60.3688812903	-730.331554232	45.5822760829	;
	93	102	0.004195747	0.038215319	0.124033929	904	904	904	0	0	1	-30	30	113.120586099	-64.9248758927	-112.44636196	58.2989325736	;
	93	149	0.002966654	0.027020609	0.087699707	904	904	904	0	0	1	-30	30	26.7984355612	50.7065058977	-26.6880930344	-58.4266435125	;
	94	150	0.00258422	0.023537359	0.076394262	904	904	904	0	0	1	-30	30	549.435210135	-6.10083441885	-541.615207862	69.7446066842	;
	95	146	0.001216475	0.011079788	0.035961223	904	904	904	0	0	1	-30	30	474.952330084	8.3820603493	-472.196157774	13.1591884032	;
	95	150	0.000858914	0.009198692	0.774829649	2172	2172	2172	0	0	1	-30	30	210.882697085	-8.21754217805	-210.491269056	-64.4281988864	;
...